Questionable use of curly braces in "b§hfe*ib vo 0  i={{hfe}*i(hie)}"
    Error: undefined symbol in: "(hfe)*[i](hie)"
Circuit: * C:\Users\lgiuliano\OneDrive - Escuela Tecnica Roberto Rocca\5° TEL\DASE\555 Monoestable\Draft3.asc

.OP point found by inspection.

Date: Fri Oct  6 09:55:44 2023
Total elapsed time: 0.070 seconds.

tnom = 27
temp = 27
method = modified trap
totiter = 3005
traniter = 3005
tranpoints = 1042
accept = 1042
rejected = 0
matrix size = 4
fillins = 0
solver = Normal
Avg thread counts: 1.1/1.3/1.3/1.1
Matrix Compiler1:       4 opcodes  0.2/[0.1]/0.2
Matrix Compiler2: off  [0.1]/0.2/0.2

