Circuit: * C:\Users\lgiuliano\OneDrive - Escuela Tecnica Roberto Rocca\5° TEL\DASE\555 Monoestable\Draft2.asc

Direct Newton iteration for .op point succeeded.

Date: Fri Oct  6 09:34:22 2023
Total elapsed time: 0.058 seconds.

tnom = 27
temp = 27
method = modified trap
totiter = 2091
traniter = 2088
tranpoints = 1045
accept = 1045
rejected = 0
matrix size = 4
fillins = 0
solver = Normal
Avg thread counts: 1.1/1.3/1.3/1.1
Matrix Compiler1:       5 opcodes  0.1/[0.1]/0.2
Matrix Compiler2:      20 opcodes  0.1/[0.1]/0.2

