Circuit: * C:\Users\lgiuliano\OneDrive - Escuela Tecnica Roberto Rocca\5° TEL\DASE\Libreria\Draft3.asc

WARNING: Less than two connections to node n002.  This node is used by a1.
WARNING: Less than two connections to node n001.  This node is used by a1.
Direct Newton iteration for .op point succeeded.

Date: Fri Sep 29 13:42:03 2023
Total elapsed time: 0.055 seconds.

tnom = 27
temp = 27
method = modified trap
totiter = 2093
traniter = 2090
tranpoints = 1046
accept = 1046
rejected = 0
matrix size = 2
fillins = 0
solver = Normal
Avg thread counts: 1.1/1.3/1.3/1.1
Matrix Compiler1:       1 opcodes  0.1/[0.1]/0.2
Matrix Compiler2: off  [0.1]/0.1/0.2

