Circuit: * C:\Users\lgiuliano\OneDrive - Escuela Tecnica Roberto Rocca\5° TEL\DASE\Libreria\Draft1.asc

Fatal Error: Port(pin) count mismatch between the definition of subcircuit "555" and instance: "xx1"
The instance has more connection terminals than the definition.
